! Users should add all user specific namelist changes below in the form of
! namelist_var = new_namelist_value
 interpolate_nlat   = 192
 interpolate_nlon   = 288
 interpolate_output = .true.
