&aerosol_convproc_opts
 convproc_do_evaprain_atonce		= .true.
 convproc_pom_spechygro		= 0.2D0
 convproc_wup_max		= 4.0D0
/
&aerosol_nl
 sol_factb_interstitial		= 0.1D0
 sol_facti_cloud_borne		= 1.0D0
 sol_factic_interstitial		= 0.4D0
/
&air_composition_nl
 dry_air_species		= ''
 water_species_in_air		= 'Q','CLDLIQ','CLDICE','RAINQM','SNOWQM','GRAUQM'
/
&blj_nl
 do_beljaars		=  .true.  
/
&cam_history_nl
 interpolate_nlat		= 192
 interpolate_nlon		= 288
 interpolate_output		= .true.
/
&cam_initfiles_nl
 bnd_topo		= '/cluster/shared/noresm/inputdata/atm/cam/topo/se/ne30pg3_gmted2010_modis_bedmachine_nc3000_Laplace0100_noleak_20240117.nc'
 ncdata		= '/cluster/shared/noresm/inputdata/atm/cam/inic/se/FLT_L58_ne30pg3_IC_c220623.nc'
 scale_dry_air_mass		=   98288.0D0 
 use_topo_file		=  .true.  
/
&check_energy_nl
 print_energy_errors		= .false.
/
&chem_inparm
 chem_use_chemtrop		= .true.
 depvel_lnd_file		= '/cluster/shared/noresm/inputdata/atm/cam/chem/trop_mozart/dvel/regrid_vegetation.nc'
 drydep_srf_file		= '/cluster/shared/noresm/inputdata/atm/cam/chem/trop_mam/atmsrf_ne30pg3_cdf5_180522.nc'
 exo_coldens_file		= '/cluster/shared/noresm/inputdata/atm/cam/chem/trop_mozart/phot/exo_coldens.nc'
 ext_frc_cycle_yr		= 1850
 ext_frc_specifier		= 'H2O    ->  /cluster/shared/noresm/inputdata/atm/cam/chem/emis/elev/H2O_emission_CH4_oxidationx2_elev_3DmonthlyL70_1850climoCMIP6piControl001_y21-50avg_c180802.nc',
         'BC_AX  ->  /cluster/shared/noresm/inputdata/atm/cam/chem/emis/cmip6_emissions_version20180512/emissions_cmip6_noresm2_BC_AX_airALL_vertical_1850_0.9x1.25_version20180512.nc',
         'BC_AX  ->  /cluster/shared/noresm/inputdata/atm/cam/chem/emis/cmip6_emissions_version20180512/emissions_cmip6_noresm2_BC_AX_anthroprofENEIND_vertical_1850_0.9x1.25_version20180512.nc',
         'BC_N   ->  /cluster/shared/noresm/inputdata/atm/cam/chem/emis/cmip6_emissions_version20180512/emissions_cmip6_noresm2_BC_N_airALL_vertical_1850_0.9x1.25_version20180512.nc',
         'BC_N   ->  /cluster/shared/noresm/inputdata/atm/cam/chem/emis/cmip6_emissions_version20180512/emissions_cmip6_noresm2_BC_N_anthroprofENEIND_vertical_1850_0.9x1.25_version20180512.nc',
         'BC_NI  ->  /cluster/shared/noresm/inputdata/atm/cam/chem/emis/cmip6_emissions_version20180512/emissions_cmip6_noresm2_BC_NI_bbAGRIBORFDEFOPEATSAVATEMF_vertical_1850_0.9x1.25_version20180512.nc',
         'OM_NI  ->  /cluster/shared/noresm/inputdata/atm/cam/chem/emis/cmip6_emissions_version20180512/emissions_cmip6_noresm2_OM_NI_airALL_vertical_1850_0.9x1.25_version20180512.nc',
         'OM_NI  ->  /cluster/shared/noresm/inputdata/atm/cam/chem/emis/cmip6_emissions_version20180512/emissions_cmip6_noresm2_OM_NI_anthroprofENEIND_vertical_1850_0.9x1.25_version20180512.nc',
         'OM_NI  ->  /cluster/shared/noresm/inputdata/atm/cam/chem/emis/cmip6_emissions_version20180512/emissions_cmip6_noresm2_OM_NI_bbAGRIBORFDEFOPEATSAVATEMF_vertical_1850_0.9x1.25_version20180512.nc',
         'SO2    ->  /cluster/shared/noresm/inputdata/atm/cam/chem/emis/cmip6_emissions_version20180512/emissions_cmip6_noresm2_SO2_airALL_vertical_1850_0.9x1.25_version20180512.nc',
         'SO2    ->  /cluster/shared/noresm/inputdata/atm/cam/chem/emis/cmip6_emissions_version20180512/emissions_cmip6_noresm2_SO2_anthroprofENEIND_vertical_1850_0.9x1.25_version20180512.nc',
         'SO2    ->  /cluster/shared/noresm/inputdata/atm/cam/chem/emis/cmip6_emissions_version20180512/emissions_cmip6_noresm2_SO2_bbAGRIBORFDEFOPEATSAVATEMF_vertical_1850_0.9x1.25_version20180512.nc',
         'SO2    ->  /cluster/shared/noresm/inputdata/atm/cam/chem/emis/cmip6_emissions_version20180512/emissions_cmip6_noresm2_SO2_volcCONTEXPL_vertical_1850_0.9x1.25_version20180512.nc',
         'SO4_PR ->  /cluster/shared/noresm/inputdata/atm/cam/chem/emis/cmip6_emissions_version20180512/emissions_cmip6_noresm2_SO4_PR_airALL_vertical_1850_0.9x1.25_version20180512.nc',
         'SO4_PR ->  /cluster/shared/noresm/inputdata/atm/cam/chem/emis/cmip6_emissions_version20180512/emissions_cmip6_noresm2_SO4_PR_anthroprofENEIND_vertical_1850_0.9x1.25_version20180512.nc',
         'SO4_PR ->  /cluster/shared/noresm/inputdata/atm/cam/chem/emis/cmip6_emissions_version20180512/emissions_cmip6_noresm2_SO4_PR_bbAGRIBORFDEFOPEATSAVATEMF_vertical_1850_0.9x1.25_version20180512.nc',
         'SO4_PR ->  /cluster/shared/noresm/inputdata/atm/cam/chem/emis/cmip6_emissions_version20180512/emissions_cmip6_noresm2_SO4_PR_volcCONTEXPL_vertical_1850_0.9x1.25_version20180512.nc'
 ext_frc_type		= 'CYCLICAL'
 fstrat_list		= ' '
 photo_max_zen		= 88.85D0
 rsf_file		= '/cluster/shared/noresm/inputdata/atm/waccm/phot/RSF_GT200nm_v3.0_c080811.nc'
 srf_emis_cycle_yr		= 1850
 srf_emis_specifier		= 'BC_AX  ->  /cluster/shared/noresm/inputdata/atm/cam/chem/emis/cmip6_emissions_version20180512/emissions_cmip6_noresm2_BC_AX_anthrosurfAGRTRADOMSOLWSTSHP_surface_1850_0.9x1.25_version20180512.nc',
         'BC_N   ->  /cluster/shared/noresm/inputdata/atm/cam/chem/emis/cmip6_emissions_version20180512/emissions_cmip6_noresm2_BC_N_anthrosurfAGRTRADOMSOLWSTSHP_surface_1850_0.9x1.25_version20180512.nc',
         'OM_NI  ->  /cluster/shared/noresm/inputdata/atm/cam/chem/emis/cmip6_emissions_version20180512/emissions_cmip6_noresm2_OM_NI_anthrosurfAGRTRADOMSOLWSTSHP_surface_1850_0.9x1.25_version20180512.nc',
         'SO2    ->  /cluster/shared/noresm/inputdata/atm/cam/chem/emis/cmip6_emissions_version20180512/emissions_cmip6_noresm2_SO2_anthrosurfAGRTRADOMSOLWSTSHP_surface_1850_0.9x1.25_version20180512.nc',
         'SO4_PR ->  /cluster/shared/noresm/inputdata/atm/cam/chem/emis/cmip6_emissions_version20180512/emissions_cmip6_noresm2_SO4_PR_anthrosurfAGRTRADOMSOLWSTSHP_surface_1850_0.9x1.25_version20180512.nc'
 srf_emis_type		= 'CYCLICAL'
 tracer_cnst_cycle_yr		=    1850    
 tracer_cnst_datapath		= '/cluster/shared/noresm/inputdata/atm/cam/tracer_cnst'
 tracer_cnst_file		= 'tracer_cnst_WACCM6_halons_3DmonthlyL70_1850climoCMIP6piControl001_y21-50avg_c180802.nc'
 tracer_cnst_filelist		= ''
 tracer_cnst_specifier		= 'O3','OH','NO3','HO2'
 tracer_cnst_type		= 'CYCLICAL'
 xs_long_file		= '/cluster/shared/noresm/inputdata/atm/waccm/phot/temp_prs_GT200nm_c221005mm.nc'
/
&chem_surfvals_nl
 flbc_cycle_yr		= 1850
 flbc_file		= '/cluster/shared/noresm/inputdata/atm/waccm/lb/LBC_17500116-20150116_CMIP6_0p5degLat_c180905.nc'
 flbc_list		= 'CO2','CH4','N2O','CFC11','CFC12','CFC11eq'
 flbc_type		= 'CYCLICAL'
 scenario_ghg		= 'CHEM_LBC_FILE'
/
&circ_diag_nl
 do_circulation_diags		=  .true. 
/
&cldfrc2m_nl
 cldfrc2m_do_avg_aist_algs		= .false.
 cldfrc2m_do_subgrid_growth		= .true.
 cldfrc2m_qist_max		= 5.e-3 
 cldfrc2m_qist_min		= 1.e-7 
 cldfrc2m_rhmaxi		=   1.0D0  
 cldfrc2m_rhmaxis		=   1.0D0  
 cldfrc2m_rhmini		=   0.80D0  
 cldfrc2m_rhminis		=   1.0D0 
/
&cldfrc_nl
 cldfrc_dp1		=  0.10D0 
 cldfrc_dp2		=  500.0D0 
 cldfrc_freeze_dry		= .true.
 cldfrc_ice		= .true.
 cldfrc_icecrit		=  0.93D0 
 cldfrc_iceopt		=  5 
 cldfrc_premib		=  700.0D2 
 cldfrc_premit		=  75000.0D0 
 cldfrc_rhminh		=  0.800D0 
 cldfrc_rhminl		=  0.950D0 
 cldfrc_rhminl_adj_land		=  0.000D0 
 cldfrc_sh1		=  0.04D0 
 cldfrc_sh2		=  500.0D0 
/
&clubb_his_nl
 clubb_history		=  .false. 
 clubb_rad_history		=  .false. 
/
&clubb_mf_nl
 clubb_mf_ent0		=  0.22    
 clubb_mf_l0		=  50.0    
 clubb_mf_nup		=  10      
 do_clubb_mf		=  .false. 
 do_clubb_mf_diag		=  .false. 
/
&clubb_params_nl
 clubb_beta		=  2.4     
 clubb_bv_efold		=  5.0     
 clubb_c1		=  1.0     
 clubb_c11		=  0.7D0   
 clubb_c11b		=  0.35D0  
 clubb_c14		=  1.6D0   
 clubb_c1b		=  1.0     
 clubb_c2rt		=  1.0     
 clubb_c2rtthl		=  1.3     
 clubb_c2thl		=  1.0     
 clubb_c4		=  5.2     
 clubb_c6rt		=  4.0     
 clubb_c6rtb		=  6.0     
 clubb_c6rtc		=  1.0     
 clubb_c6thl		=  4.0     
 clubb_c6thlb		=  6.0     
 clubb_c6thlc		=  1.0     
 clubb_c7		=  0.1     
 clubb_c7b		=  0.5     
 clubb_c8		=  4.25    
 clubb_c8b		=  0.0     
 clubb_c_invrs_tau_bkgnd		=  1.0     
 clubb_c_invrs_tau_n2		=  0.1     
 clubb_c_invrs_tau_n2_clear_wp3		=  0.0     
 clubb_c_invrs_tau_n2_wp2		=  0.2     
 clubb_c_invrs_tau_n2_wpxp		=  0.0     
 clubb_c_invrs_tau_n2_xp2		=  0.2     
 clubb_c_invrs_tau_sfc		=  0.1     
 clubb_c_invrs_tau_shear		=  0.02    
 clubb_c_k1		=  0.75    
 clubb_c_k10		=  0.5     
 clubb_c_k10h		=  0.3     
 clubb_c_k2		=  0.125   
 clubb_c_k8		=  1.25    
 clubb_c_k9		=  0.25    
 clubb_c_uu_buoy		=  0.3     
 clubb_c_uu_shr		=  0.1     
 clubb_c_wp2_splat		=  0.0     
 clubb_c_wp3_pr_turb		=  0.4     
 clubb_detice_rad		=  61.0D-6             
 clubb_detliq_rad		=  8.0D-6              
 clubb_detphase_lowtemp		=  238.15D0            
 clubb_do_energyfix		=  .true.  
 clubb_do_liqsupersat		=  .false. 
 clubb_gamma_coef		=  0.3     
 clubb_gamma_coefb		=  0.3     
 clubb_ipdf_call_placement		=  2       
 clubb_l_brunt_vaisala_freq_moist		=  .false. 
 clubb_l_call_pdf_closure_twice		=  .true.  
 clubb_l_damp_wp2_using_em		=  .false. 
 clubb_l_damp_wp3_skw_squared		=  .false. 
 clubb_l_diag_lscale_from_tau		=  .false. 
 clubb_l_do_expldiff_rtm_thlm		=  .true.  
 clubb_l_e3sm_config		=  .false. 
 clubb_l_enable_relaxed_clipping		=  .false. 
 clubb_l_godunov_upwind_wpxp_ta		=  .false. 
 clubb_l_godunov_upwind_xpyp_ta		=  .false. 
 clubb_l_intr_sfc_flux_smooth		=  .true.  
 clubb_l_lmm_stepping		=  .false. 
 clubb_l_lscale_plume_centered		=  .false. 
 clubb_l_min_wp2_from_corr_wx		=  .true.  
 clubb_l_min_xp2_from_corr_wx		=  .true.  
 clubb_l_mono_flux_lim_rtm		=  .true.  
 clubb_l_mono_flux_lim_spikefix		=  .true.  
 clubb_l_mono_flux_lim_thlm		=  .true.  
 clubb_l_mono_flux_lim_um		=  .true.  
 clubb_l_mono_flux_lim_vm		=  .true.  
 clubb_l_partial_upwind_wp3		=  .false. 
 clubb_l_predict_upwp_vpwp		=  .true.  
 clubb_l_rcm_supersat_adj		=  .false. 
 clubb_l_smooth_heaviside_tau_wpxp		=  .false. 
 clubb_l_stability_correct_tau_zm		=  .true.  
 clubb_l_standard_term_ta		=  .false. 
 clubb_l_trapezoidal_rule_zm		=  .true.  
 clubb_l_trapezoidal_rule_zt		=  .true.  
 clubb_l_upwind_xpyp_ta		=  .true.  
 clubb_l_use_c11_richardson		=  .false. 
 clubb_l_use_c7_richardson		=  .false. 
 clubb_l_use_cloud_cover		=  .true.  
 clubb_l_use_shear_richardson		=  .false. 
 clubb_l_use_thvm_in_bv_freq		=  .false. 
 clubb_l_use_tke_in_wp2_wp3_k_dfsn		=  .false. 
 clubb_l_use_tke_in_wp3_pr_turb_term		=  .false. 
 clubb_l_vary_convect_depth		=  .false. 
 clubb_l_vert_avg_closure		=  .true.  
 clubb_lambda0_stability_coef		=  0.04    
 clubb_lmin_coef		=  0.1     
 clubb_mult_coef		=  1.0D0   
 clubb_nu2		=  5.0     
 clubb_nu9		=  20.0    
 clubb_penta_solve_method		=  1       
 clubb_skw_denom_coef		=  0.0     
 clubb_skw_max_mag		=  4.5     
 clubb_tridiag_solve_method		=  1       
 clubb_up2_sfc_coef		=  2.0     
 clubb_wpxp_l_thresh		=  60.0    
 clubb_wpxp_ri_exp		=  0.5     
 clubb_z_displace		=  25.0    
/
&clubbpbl_diff_nl
 clubb_cloudtop_cooling		=  .false. 
 clubb_do_icesuper		=  .false. 
 clubb_rainevap_turb		=  .false. 
 clubb_rnevap_effic		=  1.0D0   
 clubb_timestep		=  300.0D0 
/
&conv_water_nl
 conv_water_frac_limit		=  0.01d0  
 conv_water_in_rad		=  1 
/
&dust_nl
 dust_emis_fact		= 1.30D0
 soil_erod_file		= '/cluster/shared/noresm/inputdata/atm/cam/dst/dst_source2x2tunedcam6-2x2-04062017.nc'
/
&dyn_se_inparm
 se_dribble_in_rsplit_loop		=     0
 se_ftype		=  2 
 se_fv_nphys		= 3
 se_fvm_supercycling		= -1
 se_fvm_supercycling_jet		= -1
 se_horz_num_threads		=  0 
 se_hypervis_subcycle		=  4 
 se_hypervis_subcycle_q		= 1                 
 se_hypervis_subcycle_sponge		=  1  
 se_kmax_jet		= -1
 se_kmin_jet		= -1
 se_large_courant_incr		=  .true.  
 se_limiter_option		=  8 
 se_molecular_diff		=   0.0 
 se_ne		= 30
 se_nsplit		=   2  
 se_nu		= -1
 se_nu_div		=  -1 
 se_nu_p		= -1 
 se_nu_top		=  1.25e5 
 se_pgf_formulation		=            1
 se_qsplit		=  1 
 se_refined_mesh		=  .false. 
 se_rsplit		=  3 
 se_sponge_del4_lev		=  -1 
 se_sponge_del4_nu_div_fac		=  -1 
 se_sponge_del4_nu_fac		=  -1 
 se_statediag_numtrac		= 3
 se_statefreq		=  0 
 se_tracer_num_threads		=  0 
 se_tstep_type		=  4 
 se_vert_num_threads		=  0 
 se_vert_remap_t		= 'thermal_energy_over_P'
 se_vert_remap_tracer_alg		= 'PPM_bc_linear_extrapolation'
 se_vert_remap_uvtq_alg		= 'FV3_CS'
/
&gw_drag_nl
 effgw_beres_dp		= 0.30D0
 effgw_cm		= 1.D0
 effgw_rdg_beta		= 0.5D0
 effgw_rdg_beta_max		= 0.5D0
 fcrit2		= 1.0
 front_gaussian_width		=  30.D0 
 frontgfc		= 3.00D-15
 gw_apply_tndmax		= .false.
 gw_dc		= 2.5D0
 gw_dc_long		= 0.D0
 gw_drag_file		= '/cluster/shared/noresm/inputdata/atm/waccm/gw/newmfspectra40_dc25.nc'
 gw_limit_tau_without_eff		= .false.
 gw_lndscl_sgh		= .true. 
 gw_oro_south_fac		= 1.d0   
 gw_polar_taper		= .false.
 gw_prndl		= 0.5D0
 gw_qbo_hdepth_scaling		= 1.0D0
 n_rdg_beta		= 10
 pgwv		= 32
 pgwv_long		= 0
 rdg_beta_cd_llb		= 1.0D0
 tau_0_ubc		=   .true.   
 taubgnd		= 1.25D-3
 trpd_leewv_rdg_beta		= .false.
 use_gw_rdg_beta		= .true.
 use_gw_rdg_gamma		= .false.
/
&gw_rdg_nl
 gw_rdg_c_betamax_ds		=  0.0d0  
 gw_rdg_c_betamax_sm		=  2.0d0  
 gw_rdg_c_gammamax		=  2.0d0  
 gw_rdg_do_adjust_tauoro		= .true.  
 gw_rdg_do_backward_compat		= .false.
 gw_rdg_do_divstream		= .true.
 gw_rdg_do_smooth_regimes		= .false. 
 gw_rdg_fr_c		= 1.0D0
 gw_rdg_frx0		=  2.0d0  
 gw_rdg_frx1		=  3.0d0  
 gw_rdg_orohmin		=  0.01d0 
 gw_rdg_orom2min		=  0.1d0  
 gw_rdg_orostratmin		=  0.002d0
 gw_rdg_orovmin		=  1.0d-3 
/
&hetfrz_classnuc_nl
 hetfrz_bc_scalfac		= 0.01D0
 hetfrz_dust_scalfac		= 0.05D0
/
&micro_mg_nl
 micro_do_massless_droplet_destroyer		=   .false. 
 micro_mg_accre_enhan_fact		=   1.D0    
 micro_mg_accre_sees_auto		=  .true. 
 micro_mg_adjust_cpt		= .false.
 micro_mg_autocon_fact		=   0.01D0    
 micro_mg_autocon_lwp_exp		=   2.47D0    
 micro_mg_autocon_nd_exp		=   -1.1D0    
 micro_mg_berg_eff_factor		=   1.D0    
 micro_mg_dcs		= 500.D-6
 micro_mg_do_graupel		=  .true. 
 micro_mg_do_hail		=  .false. 
 micro_mg_effi_factor		=   1.D0    
 micro_mg_homog_size		=   25.D-6    
 micro_mg_iaccr_factor		=   1.D0    
 micro_mg_implicit_fall		=  .true. 
 micro_mg_max_nicons		=   1.D8    
 micro_mg_num_steps		=     1          
 micro_mg_precip_frac_method		= 'in_cloud'
 micro_mg_sub_version		=     0          
 micro_mg_version		=     3          
 micro_mg_vtrmi_factor		=   1.D0    
 micro_mg_vtrms_factor		=   1.D0    
 micro_mg_warm_rain		= 'kk2000'
/
&microp_aero_nl
 microp_aero_bulk_scale		=   2.D0    
 microp_aero_npccn_scale		=   1.D0    
 microp_aero_wsub_min		=   0.1D0    
 microp_aero_wsub_min_asf		=   0.0D0    
 microp_aero_wsub_scale		=   1.D0    
 microp_aero_wsubi_min		=   0.001D0    
 microp_aero_wsubi_scale		=   1.D0    
/
&ndep_stream_nl
 stream_ndep_data_filename		= '/cluster/shared/noresm/inputdata/lnd/clm2/ndepdata/fndep_clm_WACCM6_CMIP6piControl001_y21-50avg_1850monthly_0.95x1.25_c180802.nc'
 stream_ndep_mesh_filename		= '/cluster/shared/noresm/inputdata/share/meshes/fv0.9x1.25_141008_polemod_ESMFmesh.nc'
 stream_ndep_year_align		= 1
 stream_ndep_year_first		= 1850
 stream_ndep_year_last		= 1850
/
&nucleate_ice_nl
 nucleate_ice_incloud		= .false.
 nucleate_ice_strat		= 1.0D0
 nucleate_ice_subgrid		= 1.2D0
 nucleate_ice_subgrid_strat		= 1.2D0
 nucleate_ice_use_troplev		= .true.
 use_preexisting_ice		= .true.
/
&oslo_ctl_nl
 aerotab_table_dir		= '/cluster/shared/noresm/inputdata/noresm-only/atm/cam/camoslo/AeroTab_8jun17/'
 dms_cycle_year		= 2000
 dms_source		= 'lana'
 dms_source_type		= 'CYCLICAL'
 ocean_filename		= 'Lana_ocean_1849_2006.nc'
 ocean_filepath		= '/cluster/shared/noresm/inputdata/noresm-only/atm/cam/camoslo'
 opom_cycle_year		= 2000
 opom_source		= 'odowd'
 opom_source_type		= 'CYCLICAL'
 volc_fraction_coarse		= 0.0
/
&phys_ctl_nl
 cam_chempkg		= 'trop_mam_oslo'
 cam_physpkg		= 'cam_dev'
 cam_snapshot_after_num		=    -1 
 cam_snapshot_before_num		=   -1 
 cld_macmic_num_steps		=  3 
 convproc_do_aer		= .true.
 deep_scheme		= 'ZM'
 do_clubb_sgs		=  .true.  
 do_hb_above_clubb		= .true.   
 eddy_scheme		= 'CLUBB_SGS'
 history_aero_optics		=           .false.  
 history_aerosol		= .true.
 history_amwg		=                  .true.   
 history_budget		=                .false.  
 history_chemistry		=             .true.   
 history_chemspecies_srf		=       .true.   
 history_clubb		=                 .true.   
 history_dust		=                  .false.  
 history_eddy		=                  .false.  
 history_vdiag		=                 .false.  
 history_waccm		=                 .false.  
 history_waccmx		=                .false.  
 macrop_scheme		= 'CLUBB_SGS'
 microp_scheme		= 'MG'
 radiation_scheme		= 'rrtmg'
 shallow_scheme		= 'CLUBB_SGS'
 srf_flux_avg		= 0
 use_gw_convect_dp		= .true.
 use_gw_convect_sh		= .false.
 use_gw_front		= .true.
 use_gw_front_igw		= .false.
 use_gw_oro		= .false.
 use_hemco		= .false.
 use_hetfrz_classnuc		= .true.
 use_simple_phys		= .false.
 use_subcol_microp		= .false.
 waccmx_opt		= 'off'
/
&prescribed_ozone_nl
 prescribed_ozone_cycle_yr		=    1850    
 prescribed_ozone_datapath		= '/cluster/shared/noresm/inputdata/atm/cam/ozone_strataero'
 prescribed_ozone_file		= 'ozone_strataero_cyclical_WACCM6_L70_CMIP6-piControl.001_y21-50avg_zm_5day_c180802.nc'
 prescribed_ozone_name		= 'O3'
 prescribed_ozone_type		= 'CYCLICAL'
/
&prescribed_volcaero_nl
 prescribed_volcaero_cycle_yr		= 1850
 prescribed_volcaero_datapath		= '/cluster/shared/noresm/inputdata/atm/cam/volc'
 prescribed_volcaero_file		= 'CMIP_CAM6_radiation_average_v3_reformatted.nc'
 prescribed_volcaero_type		= 'CYCLICAL'
/
&pumas_stochastic_tau_nl
 pumas_stochastic_tau_kernel_filename		= '/cluster/projects/nn9560k/mvertens/src/noresm2_5_alpha03/components/cam/bld/../src/physics/pumas/KBARF_tau_kernel.dat'
/
&qneg_nl
 print_qneg_warn		= 'summary'
/
&rad_cnst_nl
 icecldoptics		= 'mitchell'
 iceopticsfile		= '/cluster/shared/noresm/inputdata/atm/cam/physprops/iceoptics_c080917.nc'
 liqcldoptics		= 'gammadist'
 liqopticsfile		= '/cluster/shared/noresm/inputdata/atm/cam/physprops/F_nwvl200_mu20_lam50_res64_t298_c080428.nc'
 rad_climate		= 'A:Q:H2O', 'N:O2:O2', 'N:CO2:CO2', 'N:ozone:O3', 'N:N2O:N2O', 'N:CH4:CH4', 'N:CFC11:CFC11', 'N:CFC12:CFC12'
/
&radiation_nl
 graupel_in_rad		=  .false. 
/
&ref_pres_nl
 do_molec_press		=  0.1D0 
 molec_diff_bot_press		=  50.D0 
 trop_cloud_top_press		=       1.D2 
/
&solar_data_opts
 solar_data_type		= 'FIXED'
 solar_data_ymd		=    18500101           
 solar_htng_spctrl_scl		= .true.
 solar_irrad_data_file		= '/cluster/shared/noresm/inputdata/atm/cam/solar/SolarForcingCMIP6piControl_c160921.nc'
/
&tms_nl
 do_tms		=  .false. 
/
&tropopause_nl
 tropopause_climo_file		= '/cluster/shared/noresm/inputdata/atm/cam/chem/trop_mozart/ub/clim_p_trop.nc'
/
&upper_bc_file_opts
 ubc_file_cycle_yr		= 1850
 ubc_file_input_type		= 'CYCLICAL'
 ubc_file_path		= '/cluster/shared/noresm/inputdata/atm/cam/chem/ubc/b.e21.BWHIST.f09_g17.CMIP6-historical-WACCM.ensAvg123.cam.h0zm.H2O.185001-201412_c230509cdf5.nc'
/
&upper_bc_opts
 ubc_specifier		= 'Q:H2O->UBC_FILE'
/
&vert_diff_nl
 diff_cnsrv_mass_check		=  .false. 
 do_iss		=  .true.  
/
&wetdep_inparm
 gas_wetdep_list		= 'DMS','H2O2','H2SO4','SO2'
 gas_wetdep_method		= 'NEU'
/
&zmconv_nl
 zmconv_c0_lnd		=  0.0200D0 
 zmconv_c0_ocn		=  0.0200D0 
 zmconv_capelmt		=  70.0    
 zmconv_dmpdz		=  -1.0E-3 
 zmconv_ke		=      8.0E-6 
 zmconv_ke_lnd		=  8.0E-6 
 zmconv_momcd		=  0.7000D0 
 zmconv_momcu		=  0.7000D0 
 zmconv_num_cin		=  1       
 zmconv_org		=  .false. 
 zmconv_parcel_pbl		= .true.
 zmconv_tau		=  3600.0    
 zmconv_tiedke_add		=  0.5     
/
